Version 4
SHEET 1 2384 884
WIRE 1312 -160 1248 -160
WIRE 1584 -160 1392 -160
WIRE 272 -32 208 -32
WIRE 448 -32 352 -32
WIRE 1248 -32 1248 -160
WIRE 1312 -32 1248 -32
WIRE 1456 -32 1376 -32
WIRE 768 -16 704 -16
WIRE 944 -16 848 -16
WIRE -864 48 -864 32
WIRE 336 48 304 48
WIRE -1040 64 -1040 32
WIRE 832 64 800 64
WIRE 1376 80 1344 80
WIRE 304 96 304 48
WIRE -128 112 -160 112
WIRE -80 112 -128 112
WIRE 48 112 -16 112
WIRE 208 112 208 -32
WIRE 208 112 128 112
WIRE 272 112 208 112
WIRE 800 112 800 64
WIRE -864 128 -864 48
WIRE 448 128 448 -32
WIRE 448 128 336 128
WIRE 544 128 448 128
WIRE 704 128 704 -16
WIRE 704 128 624 128
WIRE 768 128 704 128
WIRE 1344 128 1344 80
WIRE -1040 144 -1040 64
WIRE -160 144 -160 112
WIRE 176 144 144 144
WIRE 272 144 176 144
WIRE 944 144 944 -16
WIRE 944 144 832 144
WIRE 992 144 944 144
WIRE 1088 144 1056 144
WIRE 1248 144 1248 -32
WIRE 1248 144 1168 144
WIRE 1312 144 1248 144
WIRE 672 160 640 160
WIRE 768 160 672 160
WIRE 1456 160 1456 -32
WIRE 1456 160 1376 160
WIRE 1488 160 1456 160
WIRE 1584 160 1584 -160
WIRE 1584 160 1568 160
WIRE 1664 160 1584 160
WIRE 1856 160 1664 160
WIRE 1904 160 1856 160
WIRE 1216 176 1184 176
WIRE 1312 176 1216 176
WIRE 1904 176 1904 160
WIRE 1664 288 1664 160
WIRE 1312 304 1248 304
WIRE 1584 304 1392 304
WIRE 1248 432 1248 304
WIRE 1312 432 1248 432
WIRE 1456 432 1376 432
WIRE 1376 544 1344 544
WIRE 1344 592 1344 544
WIRE 448 608 448 128
WIRE 992 608 448 608
WIRE 1088 608 1056 608
WIRE 1248 608 1248 432
WIRE 1248 608 1168 608
WIRE 1312 608 1248 608
WIRE 1456 624 1456 432
WIRE 1456 624 1376 624
WIRE 1488 624 1456 624
WIRE 1584 624 1584 304
WIRE 1584 624 1568 624
WIRE 1664 624 1664 352
WIRE 1664 624 1584 624
WIRE 1872 624 1664 624
WIRE 1904 624 1872 624
WIRE 1216 640 1184 640
WIRE 1312 640 1216 640
WIRE 1904 640 1904 624
FLAG -864 208 0
FLAG -160 224 0
FLAG 1904 256 0
FLAG 304 160 0
FLAG -1040 224 0
FLAG 1856 160 Vout_p
FLAG -128 112 Vin
FLAG 176 144 Vbias
FLAG -864 48 Vbias
FLAG -1040 64 Vcc
FLAG 336 48 Vcc
FLAG 800 176 0
FLAG 672 160 Vbias
FLAG 832 64 Vcc
FLAG 1344 192 0
FLAG 1216 176 Vbias
FLAG 1376 80 Vcc
FLAG 1344 656 0
FLAG 1216 640 Vbias
FLAG 1376 544 Vcc
FLAG 1904 720 0
FLAG 1872 624 Vout_n
SYMBOL voltage -160 128 R0
WINDOW 3 24 152 Left 2
WINDOW 123 24 180 Left 2
WINDOW 39 24 124 Left 2
SYMATTR InstName V1
SYMATTR Value SINE(0 0.75 1000)
SYMATTR Value2 AC 1
SYMATTR SpiceLine Rser=600
SYMBOL Misc\\battery -864 112 R0
WINDOW 123 0 0 Left 0
WINDOW 39 0 0 Left 0
SYMATTR InstName V2
SYMATTR Value 2.5
SYMBOL res 144 96 R90
WINDOW 0 0 56 VBottom 2
WINDOW 3 32 56 VTop 2
SYMATTR InstName R1
SYMATTR Value 20k
SYMBOL cap -16 96 R90
WINDOW 0 0 32 VBottom 2
WINDOW 3 32 32 VTop 2
SYMATTR InstName C1
SYMATTR Value 4.7µ
SYMBOL res 368 -48 R90
WINDOW 0 0 56 VBottom 2
WINDOW 3 32 56 VTop 2
SYMATTR InstName R2
SYMATTR Value 47k
SYMBOL res 1888 160 R0
SYMATTR InstName R5
SYMATTR Value 10k
SYMBOL Misc\\battery -1040 128 R0
WINDOW 123 0 0 Left 0
WINDOW 39 0 0 Left 0
SYMATTR InstName V3
SYMATTR Value 5
SYMBOL OpAmps\\UniversalOpAmp 304 128 R0
SYMATTR InstName U1
SYMBOL res 640 112 R90
WINDOW 0 0 56 VBottom 2
WINDOW 3 32 56 VTop 2
SYMATTR InstName R3
SYMATTR Value 4.7k
SYMBOL res 864 -32 R90
WINDOW 0 0 56 VBottom 2
WINDOW 3 32 56 VTop 2
SYMATTR InstName R4
SYMATTR Value 4.7k
SYMBOL OpAmps\\UniversalOpAmp 800 144 R0
SYMATTR InstName U2
SYMBOL res 1184 128 R90
WINDOW 0 0 56 VBottom 2
WINDOW 3 32 56 VTop 2
SYMATTR InstName R6
SYMATTR Value 1k
SYMBOL res 1408 -176 R90
WINDOW 0 0 56 VBottom 2
WINDOW 3 32 56 VTop 2
SYMATTR InstName R7
SYMATTR Value 1k
SYMBOL OpAmps\\UniversalOpAmp 1344 160 R0
SYMATTR InstName U3
SYMBOL cap 1056 128 R90
WINDOW 0 0 32 VBottom 2
WINDOW 3 32 32 VTop 2
SYMATTR InstName C2
SYMATTR Value 10µ
SYMBOL res 1584 144 R90
WINDOW 0 0 56 VBottom 2
WINDOW 3 32 56 VTop 2
SYMATTR InstName R8
SYMATTR Value 47
SYMBOL cap 1376 -48 R90
WINDOW 0 0 32 VBottom 2
WINDOW 3 32 32 VTop 2
SYMATTR InstName C3
SYMATTR Value 1800p
SYMBOL res 1184 592 R90
WINDOW 0 0 56 VBottom 2
WINDOW 3 32 56 VTop 2
SYMATTR InstName R9
SYMATTR Value 1k
SYMBOL res 1408 288 R90
WINDOW 0 0 56 VBottom 2
WINDOW 3 32 56 VTop 2
SYMATTR InstName R10
SYMATTR Value 1k
SYMBOL OpAmps\\UniversalOpAmp 1344 624 R0
SYMATTR InstName U4
SYMBOL res 1584 608 R90
WINDOW 0 0 56 VBottom 2
WINDOW 3 32 56 VTop 2
SYMATTR InstName R11
SYMATTR Value 47
SYMBOL cap 1376 416 R90
WINDOW 0 0 32 VBottom 2
WINDOW 3 32 32 VTop 2
SYMATTR InstName C4
SYMATTR Value 1800p
SYMBOL cap 1648 288 R0
SYMATTR InstName C5
SYMATTR Value 0.01µ
SYMBOL res 1888 624 R0
SYMATTR InstName R12
SYMATTR Value 10k
SYMBOL cap 1056 592 R90
WINDOW 0 0 32 VBottom 2
WINDOW 3 32 32 VTop 2
SYMATTR InstName C6
SYMATTR Value 10µ
TEXT -72 576 Left 2 ;.tran 10m
TEXT -72 608 Left 2 !.ac oct 32 40 400000
TEXT 952 776 Left 2 ;Digital Repeater 2 - Audio Input Network
TEXT 1936 296 Center 2 ;Input impedance \nper ADC1804 datasheet.
