Version 4
SHEET 1 1176 680
WIRE 272 -160 208 -160
WIRE 448 -160 336 -160
WIRE 208 -32 208 -160
WIRE 272 -32 208 -32
WIRE 448 -32 448 -160
WIRE 448 -32 352 -32
WIRE -864 48 -864 32
WIRE 336 48 304 48
WIRE -1040 64 -1040 32
WIRE 304 96 304 48
WIRE -128 112 -160 112
WIRE -80 112 -128 112
WIRE 48 112 -16 112
WIRE 208 112 208 -32
WIRE 208 112 128 112
WIRE 272 112 208 112
WIRE -864 128 -864 48
WIRE 448 128 448 -32
WIRE 448 128 336 128
WIRE 544 128 448 128
WIRE 656 128 608 128
WIRE 704 128 656 128
WIRE 784 128 704 128
WIRE 912 128 864 128
WIRE 1072 128 912 128
WIRE 1120 128 1072 128
WIRE -1040 144 -1040 64
WIRE -160 144 -160 112
WIRE 176 144 144 144
WIRE 272 144 176 144
WIRE 1120 144 1120 128
WIRE 704 160 704 128
WIRE 912 160 912 128
FLAG -864 208 0
FLAG -160 224 0
FLAG 704 240 0
FLAG 912 224 0
FLAG 1120 224 0
FLAG 304 160 0
FLAG -1040 224 0
FLAG 1072 128 Vout
FLAG -128 112 Vin
FLAG 176 144 Vbias
FLAG -864 48 Vbias
FLAG -1040 64 Vcc
FLAG 336 48 Vcc
FLAG 656 128 Vo
SYMBOL voltage -160 128 R0
WINDOW 3 24 152 Left 2
WINDOW 123 24 180 Left 2
WINDOW 39 24 124 Left 2
SYMATTR InstName V1
SYMATTR Value SINE(0 0.75 1000)
SYMATTR Value2 AC 1
SYMATTR SpiceLine Rser=600
SYMBOL Misc\\battery -864 112 R0
WINDOW 123 0 0 Left 0
WINDOW 39 0 0 Left 0
SYMATTR InstName V2
SYMATTR Value 2.5
SYMBOL res 144 96 R90
WINDOW 0 0 56 VBottom 2
WINDOW 3 32 56 VTop 2
SYMATTR InstName R1
SYMATTR Value 20k
SYMBOL cap -16 96 R90
WINDOW 0 0 32 VBottom 2
WINDOW 3 32 32 VTop 2
SYMATTR InstName C1
SYMATTR Value 0.47µ
SYMBOL res 368 -48 R90
WINDOW 0 0 56 VBottom 2
WINDOW 3 32 56 VTop 2
SYMATTR InstName R2
SYMATTR Value 68k
SYMBOL cap 336 -176 R90
WINDOW 0 0 32 VBottom 2
WINDOW 3 32 32 VTop 2
SYMATTR InstName C2
SYMATTR Value 470p
SYMBOL cap 608 112 R90
WINDOW 0 0 32 VBottom 2
WINDOW 3 32 32 VTop 2
SYMATTR InstName C3
SYMATTR Value 10µ
SYMBOL res 688 144 R0
SYMATTR InstName R3
SYMATTR Value 10k
SYMBOL res 880 112 R90
WINDOW 0 0 56 VBottom 2
WINDOW 3 32 56 VTop 2
SYMATTR InstName R4
SYMATTR Value 510
SYMBOL cap 896 160 R0
SYMATTR InstName C4
SYMATTR Value 100p
SYMBOL res 1104 128 R0
SYMATTR InstName R5
SYMATTR Value 1k
SYMBOL Misc\\battery -1040 128 R0
WINDOW 123 0 0 Left 0
WINDOW 39 0 0 Left 0
SYMATTR InstName V3
SYMATTR Value 5
SYMBOL OpAmps\\UniversalOpAmp 304 128 R0
SYMATTR InstName U1
TEXT -72 576 Left 2 ;.tran 10m
TEXT -72 608 Left 2 !.ac oct 32 40 100000
