Version 4
SHEET 1 1176 968
WIRE -400 -176 -464 -176
WIRE -224 -176 -320 -176
WIRE 272 -160 208 -160
WIRE 448 -160 336 -160
WIRE -336 -96 -368 -96
WIRE -368 -48 -368 -96
WIRE -624 -32 -688 -32
WIRE -464 -32 -464 -176
WIRE -464 -32 -544 -32
WIRE -400 -32 -464 -32
WIRE 208 -32 208 -160
WIRE 272 -32 208 -32
WIRE 448 -32 448 -160
WIRE 448 -32 352 -32
WIRE -224 -16 -224 -176
WIRE -224 -16 -336 -16
WIRE -160 -16 -224 -16
WIRE -496 0 -528 0
WIRE -400 0 -496 0
WIRE -160 0 -160 -16
WIRE 336 48 304 48
WIRE 304 96 304 48
WIRE -1264 112 -1296 112
WIRE -1216 112 -1264 112
WIRE -160 112 -160 80
WIRE -80 112 -160 112
WIRE 48 112 -16 112
WIRE 208 112 208 -32
WIRE 208 112 128 112
WIRE 272 112 208 112
WIRE 448 128 448 -32
WIRE 448 128 336 128
WIRE 544 128 448 128
WIRE 656 128 608 128
WIRE 704 128 656 128
WIRE 784 128 704 128
WIRE 912 128 864 128
WIRE 1072 128 912 128
WIRE 1120 128 1072 128
WIRE -1296 144 -1296 112
WIRE 176 144 144 144
WIRE 272 144 176 144
WIRE 1120 144 1120 128
WIRE -160 160 -160 112
WIRE 704 160 704 128
WIRE 912 160 912 128
WIRE 656 768 656 752
WIRE 480 784 480 752
WIRE 656 848 656 768
WIRE 480 864 480 784
WIRE 0 0 0 0
FLAG 656 928 0
FLAG -1296 224 0
FLAG 704 240 0
FLAG 912 224 0
FLAG 1120 224 0
FLAG 304 160 0
FLAG 480 944 0
FLAG 1072 128 Vout
FLAG -1264 112 Vin
FLAG 176 144 Vbias
FLAG 656 768 Vbias
FLAG 480 784 Vcc
FLAG 336 48 Vcc
FLAG 656 128 Vo
FLAG -368 16 0
FLAG -496 0 Vbias
FLAG -336 -96 Vcc
FLAG -160 240 0
SYMBOL voltage -1296 128 R0
WINDOW 3 24 152 Left 2
WINDOW 123 24 180 Left 2
WINDOW 39 24 124 Left 2
SYMATTR Value SINE(0 0.75 1000)
SYMATTR Value2 AC 1
SYMATTR SpiceLine Rser=600
SYMATTR InstName V1
SYMBOL Misc\\battery 656 832 R0
WINDOW 123 0 0 Left 0
WINDOW 39 0 0 Left 0
SYMATTR InstName V2
SYMATTR Value 2.5
SYMBOL res 144 96 R90
WINDOW 0 0 56 VBottom 2
WINDOW 3 32 56 VTop 2
SYMATTR InstName R1
SYMATTR Value 20k
SYMBOL cap -16 96 R90
WINDOW 0 0 32 VBottom 2
WINDOW 3 32 32 VTop 2
SYMATTR InstName C1
SYMATTR Value 4.7µ
SYMBOL res 368 -48 R90
WINDOW 0 0 56 VBottom 2
WINDOW 3 32 56 VTop 2
SYMATTR InstName R2
SYMATTR Value 68k
SYMBOL cap 336 -176 R90
WINDOW 0 0 32 VBottom 2
WINDOW 3 32 32 VTop 2
SYMATTR InstName C2
SYMATTR Value 470p
SYMBOL cap 608 112 R90
WINDOW 0 0 32 VBottom 2
WINDOW 3 32 32 VTop 2
SYMATTR InstName C3
SYMATTR Value 10µ
SYMBOL res 688 144 R0
SYMATTR InstName R3
SYMATTR Value 10k
SYMBOL res 880 112 R90
WINDOW 0 0 56 VBottom 2
WINDOW 3 32 56 VTop 2
SYMATTR InstName R4
SYMATTR Value 510
SYMBOL cap 896 160 R0
SYMATTR InstName C4
SYMATTR Value 100p
SYMBOL res 1104 128 R0
SYMATTR InstName R5
SYMATTR Value 1k
SYMBOL Misc\\battery 480 848 R0
WINDOW 123 0 0 Left 0
WINDOW 39 0 0 Left 0
SYMATTR InstName V3
SYMATTR Value 5
SYMBOL OpAmps\\UniversalOpAmp 304 128 R0
SYMATTR InstName U1
SYMBOL res -528 -48 R90
WINDOW 0 0 56 VBottom 2
WINDOW 3 32 56 VTop 2
SYMATTR InstName R6
SYMATTR Value 20k
SYMBOL cap -688 -48 R90
WINDOW 0 0 32 VBottom 2
WINDOW 3 32 32 VTop 2
SYMATTR InstName C5
SYMATTR Value 4.7µ
SYMBOL res -304 -192 R90
WINDOW 0 0 56 VBottom 2
WINDOW 3 32 56 VTop 2
SYMATTR InstName R7
SYMATTR Value 20k
SYMBOL OpAmps\\UniversalOpAmp -368 -16 R0
SYMATTR InstName U2
SYMBOL res -176 144 R0
SYMATTR InstName R8
SYMBOL res -176 -16 R0
SYMATTR InstName R9
TEXT -72 576 Left 2 ;.tran 10m
TEXT -72 608 Left 2 !.ac oct 32 40 100000
TEXT 216 312 Left 2 ;Digital Repeater 2 - Audio Output Filter 2
